Version 4
SHEET 1 3684 1716
WIRE 608 -288 384 -288
WIRE 1408 -288 608 -288
WIRE 2048 -288 1408 -288
WIRE 2160 -288 2048 -288
WIRE 2272 -288 2160 -288
WIRE 2448 -288 2272 -288
WIRE 2672 -288 2448 -288
WIRE 2272 -240 2272 -288
WIRE 2048 -224 2048 -288
WIRE 2160 -224 2160 -288
WIRE 1328 -208 1200 -208
WIRE 2448 -192 2448 -288
WIRE 608 -144 608 -288
WIRE 2048 -112 2048 -160
WIRE 2160 -112 2160 -160
WIRE 2272 -112 2272 -160
WIRE 1904 -96 1792 -96
WIRE 1328 -80 1328 -208
WIRE 1008 -64 992 -64
WIRE 1104 -64 1072 -64
WIRE 1296 -64 1104 -64
WIRE 1904 -64 1904 -96
WIRE 1408 -48 1408 -288
WIRE 384 -16 384 -288
WIRE 1600 -16 1472 -16
WIRE 1680 -16 1600 -16
WIRE 1792 -16 1792 -96
WIRE 1792 -16 1744 -16
WIRE 2672 -16 2672 -288
WIRE 608 0 608 -64
WIRE 656 0 608 0
WIRE 736 0 720 0
WIRE 912 0 816 0
WIRE 1200 32 1200 -208
WIRE 1296 32 1200 32
WIRE 1600 32 1600 -16
WIRE 1904 32 1904 16
WIRE 2272 32 1904 32
WIRE 2448 32 2448 -112
WIRE 2608 32 2448 32
WIRE 1904 48 1904 32
WIRE 608 80 608 0
WIRE 2800 80 2672 80
WIRE 2960 80 2864 80
WIRE 2976 80 2960 80
WIRE 912 112 912 0
WIRE 1104 112 1104 -64
WIRE 80 128 48 128
WIRE 224 128 80 128
WIRE 272 128 224 128
WIRE 384 128 384 64
WIRE 384 128 336 128
WIRE 544 128 384 128
WIRE 2448 144 2448 32
WIRE 2672 144 2672 80
WIRE 2976 144 2976 80
WIRE 1328 160 1328 48
WIRE 1408 160 1408 16
WIRE 1408 160 1328 160
WIRE 1600 160 1600 112
WIRE 1696 160 1600 160
WIRE 1904 160 1904 128
WIRE 1904 160 1760 160
WIRE 2064 160 1904 160
WIRE 1328 176 1328 160
WIRE 1440 176 1440 0
WIRE 1904 192 1904 160
WIRE 48 208 48 128
WIRE 224 208 224 128
WIRE 384 208 384 128
WIRE 608 208 608 176
WIRE 912 208 912 192
WIRE 992 208 992 -64
WIRE 992 208 912 208
WIRE 1200 208 1200 32
WIRE 1600 208 1600 160
WIRE 912 224 912 208
WIRE 1328 288 1328 256
WIRE 1904 288 1904 272
WIRE 2064 288 2064 160
WIRE 2064 288 1904 288
WIRE 1904 304 1904 288
WIRE 48 384 48 288
WIRE 224 384 224 288
WIRE 384 384 384 288
WIRE 608 384 608 288
WIRE 912 384 912 304
WIRE 1104 384 1104 176
WIRE 1328 384 1328 352
WIRE 1440 384 1440 240
WIRE 1904 448 1904 384
WIRE 2272 464 2272 32
WIRE 1600 544 1600 272
WIRE 1904 544 1904 528
WIRE 1904 544 1600 544
WIRE 1904 560 1904 544
WIRE 2272 560 2272 544
WIRE 2448 560 2448 208
WIRE 2448 560 2272 560
WIRE 2272 576 2272 560
WIRE 1904 688 1904 640
WIRE 2272 688 2272 656
WIRE 2272 688 1904 688
WIRE 1904 720 1904 688
WIRE 2672 720 2672 224
WIRE 2976 720 2976 224
FLAG 48 384 0
FLAG 224 384 0
FLAG 384 384 0
FLAG 608 384 0
FLAG 912 384 0
FLAG 1104 384 0
FLAG 1328 384 0
FLAG 1440 384 0
FLAG 1200 208 0
FLAG 2048 -112 0
FLAG 2160 -112 0
FLAG 2272 -112 0
FLAG 1904 720 0
FLAG 2672 720 0
FLAG 2976 720 0
FLAG 80 128 in
FLAG 2960 80 out
SYMBOL voltage 48 192 R0
WINDOW 3 -747 12 Left 2
WINDOW 123 24 72 Left 2
WINDOW 39 0 0 Left 2
SYMATTR Value wavefile "C:\Users\Lenovo\Desktop\buffer\Test_in.wav" chan=0
SYMATTR Value2 AC 1
SYMATTR InstName V1
SYMBOL res 208 192 R0
SYMATTR InstName R1
SYMATTR Value 4.7Meg
SYMBOL cap 336 112 R90
WINDOW 0 0 32 VBottom 2
WINDOW 3 32 32 VTop 2
SYMATTR InstName C1
SYMATTR Value 4.7n
SYMBOL res 368 192 R0
SYMATTR InstName R2
SYMATTR Value 43k
SYMBOL res 368 -32 R0
SYMATTR InstName R3
SYMATTR Value 430k
SYMBOL npn 544 80 R0
SYMATTR InstName Q1
SYMATTR Value BC550C
SYMBOL res 592 192 R0
SYMATTR InstName R4
SYMATTR Value 390
SYMBOL res 592 -160 R0
SYMATTR InstName R5
SYMATTR Value 10k
SYMBOL cap 720 -16 R90
WINDOW 0 0 32 VBottom 2
WINDOW 3 32 32 VTop 2
SYMATTR InstName C2
SYMATTR Value 33n
SYMBOL res 832 -16 R90
WINDOW 0 0 56 VBottom 2
WINDOW 3 32 56 VTop 2
SYMATTR InstName R6
SYMATTR Value 56k
SYMBOL res 896 96 R0
SYMATTR InstName R7
SYMATTR Value 10k
SYMBOL res 896 208 R0
SYMATTR InstName R8
SYMATTR Value 37k
SYMBOL cap 1072 -80 R90
WINDOW 0 0 32 VBottom 2
WINDOW 3 32 32 VTop 2
SYMATTR InstName C3
SYMATTR Value 33n
SYMBOL cap 1088 112 R0
SYMATTR InstName C4
SYMATTR Value 4.7n
SYMBOL Robertugo\\Lm386 1344 -16 M180
SYMATTR InstName U1
SYMBOL polcap 1424 176 R0
SYMATTR InstName C5
SYMATTR Value 10µ
SYMBOL res 1312 160 R0
SYMATTR InstName R9
SYMATTR Value 100
SYMBOL polcap 1312 288 R0
SYMATTR InstName C6
SYMATTR Value 47µ
SYMBOL res 1584 16 R0
SYMATTR InstName R10
SYMATTR Value 33k
SYMBOL cap 1744 -32 R90
WINDOW 0 0 32 VBottom 2
WINDOW 3 32 32 VTop 2
SYMATTR InstName C7
SYMATTR Value 470p
SYMBOL cap 1584 208 R0
SYMATTR InstName C8
SYMATTR Value 33n
SYMBOL cap 1760 144 R90
WINDOW 0 0 32 VBottom 2
WINDOW 3 32 32 VTop 2
SYMATTR InstName C9
SYMATTR Value 33n
SYMBOL res 1888 -80 R0
SYMATTR InstName R11
SYMATTR Value 70k
SYMBOL res 1888 32 R0
SYMATTR InstName R12
SYMATTR Value 150k
SYMBOL res 1888 176 R0
SYMATTR InstName R13
SYMATTR Value 0.4Meg
SYMBOL res 1888 288 R0
SYMATTR InstName R14
SYMATTR Value 0.6Meg
SYMBOL res 1888 432 R0
SYMATTR InstName R15
SYMATTR Value 15k
SYMBOL res 1888 544 R0
SYMATTR InstName R16
SYMATTR Value 7k
SYMBOL res 2256 560 R0
SYMATTR InstName R17
SYMATTR Value 0.7Meg
SYMBOL res 2256 448 R0
SYMATTR InstName R18
SYMATTR Value 0.3Meg
SYMBOL cap 2432 144 R0
SYMATTR InstName C10
SYMATTR Value 470n
SYMBOL res 2432 -208 R0
SYMATTR InstName R19
SYMATTR Value 100k
SYMBOL Misc\\battery 2272 -256 R0
WINDOW 123 0 0 Left 2
WINDOW 39 0 0 Left 2
SYMATTR InstName V2
SYMATTR Value 9
SYMBOL polcap 2144 -224 R0
SYMATTR InstName C11
SYMATTR Value 100µ
SYMBOL cap 2032 -224 R0
SYMATTR InstName C12
SYMATTR Value 470n
SYMBOL npn 2608 -16 R0
SYMATTR InstName Q2
SYMATTR Value BC550C
SYMBOL res 2656 128 R0
SYMATTR InstName R20
SYMATTR Value 10k
SYMBOL cap 2864 64 R90
WINDOW 0 0 32 VBottom 2
WINDOW 3 32 32 VTop 2
SYMATTR InstName C13
SYMATTR Value 470n
SYMBOL res 2960 128 R0
SYMATTR InstName R39
SYMATTR Value 1Meg
TEXT -736 456 Left 2 !.wave "C:\\Users\\Lenovo\\Desktop\\buffer\\output2.wav" 16 44100 out
TEXT -472 568 Left 2 !;tran 0 1 0 0.00001
TEXT 776 208 Left 2 ;GAIN
TEXT 2016 -24 Left 2 ;HI
TEXT 2072 320 Left 2 ;BASS
TEXT 1984 544 Left 2 ;MID
TEXT 2376 600 Left 2 ;MASTER
TEXT -488 96 Left 2 !.ac dec 100 100 20k
